 xtb: 6.6.1 (unknown)
          06262518523D

  7  7  0     0  0            999 V2000
   -0.6410   -0.0503   -0.0847 C   0  0  0  0  0  0  0  0  0  0  0  0
    0.8076    0.0183    0.0263 N   0  0  0  0  0  0  0  0  0  0  0  0
    1.4573   -1.0116    0.2984 O   0  0  0  0  0  0  0  0  0  0  0  0
    1.4249    1.2446    0.1028 O   0  0  0  0  0  0  0  0  0  0  0  0
   -0.9414   -1.0012   -0.5742 H   0  0  0  0  0  0  0  0  0  0  0  0
   -1.0131    0.7987   -0.6959 H   0  0  0  0  0  0  0  0  0  0  0  0
   -1.0944    0.0015    0.9272 H   0  0  0  0  0  0  0  0  0  0  0  0
  1  2  1  0  0  0  0
  2  3  2  0  0  0  0
  2  4  4  0  0  0  0
  3  4  1  0  0  0  0
  1  5  1  0  0  0  0
  1  6  1  0  0  0  0
  1  7  1  0  0  0  0
M  END
