 xtb: 6.7.1pre (5071a88)
          06192519233D

  7  7  0     0  0            999 V2000
   -0.6285   -0.0377   -0.0835 C   0  0  0  0  0  0  0  0  0  0  0  0
    0.8277    0.0471    0.0881 N   0  0  0  0  0  0  0  0  0  0  0  0
    1.4271   -0.9897    0.2235 O   0  0  0  0  0  0  0  0  0  0  0  0
    1.3173    1.1483    0.0971 O   0  0  0  0  0  0  0  0  0  0  0  0
   -0.8833   -0.9964   -0.5295 H   0  0  0  0  0  0  0  0  0  0  0  0
   -0.9684    0.7944   -0.6962 H   0  0  0  0  0  0  0  0  0  0  0  0
   -1.0920    0.0341    0.9005 H   0  0  0  0  0  0  0  0  0  0  0  0
  1  2  1  0  0  0  0
  2  3  4  0  0  0  0
  2  4  4  0  0  0  0
  3  4  1  0  0  0  0
  1  5  1  0  0  0  0
  1  6  1  0  0  0  0
  1  7  1  0  0  0  0
M  END
